modelo_bdgd2opendss/sub__5001462/5002409/CargasMT_SA01_2023056072_5002409_------1-----.dss
New "Load.MT_9020082_M1" bus1="90200825002409.1.2.3" phases=3 conn=Delta model=2 kv=13.800000000 kw = 48.0886825 pf=0.92 status=variable vmaxpu=1.5 vminpu=0.5 daily="MT-Tipo1_SA"  
New "Load.MT_9020082_M2" bus1="90200825002409.1.2.3" phases=3 conn=Delta model=3 kv=13.800000000 kw = 48.0886825 pf=0.92 status=variable vmaxpu=1.5 vminpu=0.5 daily="MT-Tipo1_SA" 
New "Load.MT_8947579_M1" bus1="89475795002409.1.2.3" phases=3 conn=Delta model=2 kv=13.800000000 kw = 4.419594 pf=0.92 status=variable vmaxpu=1.5 vminpu=0.5 daily="MT-Tipo8_SA"  
New "Load.MT_8947579_M2" bus1="89475795002409.1.2.3" phases=3 conn=Delta model=3 kv=13.800000000 kw = 4.419594 pf=0.92 status=variable vmaxpu=1.5 vminpu=0.5 daily="MT-Tipo8_SA" 
New "Load.MT_8945834_M1" bus1="89458345002409.1.2.3" phases=3 conn=Delta model=2 kv=13.800000000 kw = 4.21518 pf=0.92 status=variable vmaxpu=1.5 vminpu=0.5 daily="MT-Tipo2_SA"  
New "Load.MT_8945834_M2" bus1="89458345002409.1.2.3" phases=3 conn=Delta model=3 kv=13.800000000 kw = 4.21518 pf=0.92 status=variable vmaxpu=1.5 vminpu=0.5 daily="MT-Tipo2_SA" 
New "Load.MT_8771064_M1" bus1="87710645002409.1.2.3" phases=3 conn=Delta model=2 kv=13.800000000 kw = 56.757751 pf=0.92 status=variable vmaxpu=1.5 vminpu=0.5 daily="MT-Tipo2_SA"  
New "Load.MT_8771064_M2" bus1="87710645002409.1.2.3" phases=3 conn=Delta model=3 kv=13.800000000 kw = 56.757751 pf=0.92 status=variable vmaxpu=1.5 vminpu=0.5 daily="MT-Tipo2_SA" 
New "Load.MT_8237894_M1" bus1="82378945002409.1.2.3" phases=3 conn=Delta model=2 kv=13.800000000 kw = 20.080472 pf=0.92 status=variable vmaxpu=1.5 vminpu=0.5 daily="MT-Tipo5_SA"  
New "Load.MT_8237894_M2" bus1="82378945002409.1.2.3" phases=3 conn=Delta model=3 kv=13.800000000 kw = 20.080472 pf=0.92 status=variable vmaxpu=1.5 vminpu=0.5 daily="MT-Tipo5_SA" 
New "Load.MT_8236791_M1" bus1="82367915002409.1.2.3" phases=3 conn=Delta model=2 kv=13.800000000 kw = 16.644888 pf=0.92 status=variable vmaxpu=1.5 vminpu=0.5 daily="MT-Tipo5_SA"  
New "Load.MT_8236791_M2" bus1="82367915002409.1.2.3" phases=3 conn=Delta model=3 kv=13.800000000 kw = 16.644888 pf=0.92 status=variable vmaxpu=1.5 vminpu=0.5 daily="MT-Tipo5_SA" 
New "Load.MT_8237857_M1" bus1="82378575002409.1.2.3" phases=3 conn=Delta model=2 kv=13.800000000 kw = 8.4594625 pf=0.92 status=variable vmaxpu=1.5 vminpu=0.5 daily="MT-Tipo1_SA"  
New "Load.MT_8237857_M2" bus1="82378575002409.1.2.3" phases=3 conn=Delta model=3 kv=13.800000000 kw = 8.4594625 pf=0.92 status=variable vmaxpu=1.5 vminpu=0.5 daily="MT-Tipo1_SA" 
New "Load.MT_8237182_M1" bus1="82371825002409.1.2.3" phases=3 conn=Delta model=2 kv=13.800000000 kw = 4.54452 pf=0.92 status=variable vmaxpu=1.5 vminpu=0.5 daily="MT-Tipo1_SA"  
New "Load.MT_8237182_M2" bus1="82371825002409.1.2.3" phases=3 conn=Delta model=3 kv=13.800000000 kw = 4.54452 pf=0.92 status=variable vmaxpu=1.5 vminpu=0.5 daily="MT-Tipo1_SA" 
New "Load.MT_8576452_M1" bus1="85764525002409.1.2.3" phases=3 conn=Delta model=2 kv=13.800000000 kw = 18.413069 pf=0.92 status=variable vmaxpu=1.5 vminpu=0.5 daily="MT-Tipo9_SA"  
New "Load.MT_8576452_M2" bus1="85764525002409.1.2.3" phases=3 conn=Delta model=3 kv=13.800000000 kw = 18.413069 pf=0.92 status=variable vmaxpu=1.5 vminpu=0.5 daily="MT-Tipo9_SA" 
New "Load.MT_8237159_M1" bus1="82371595002409.1.2.3" phases=3 conn=Delta model=2 kv=13.800000000 kw = 14.858347 pf=0.92 status=variable vmaxpu=1.5 vminpu=0.5 daily="MT-Tipo5_SA"  
New "Load.MT_8237159_M2" bus1="82371595002409.1.2.3" phases=3 conn=Delta model=3 kv=13.800000000 kw = 14.858347 pf=0.92 status=variable vmaxpu=1.5 vminpu=0.5 daily="MT-Tipo5_SA" 
New "Load.MT_8236807_M1" bus1="82368075002409.1.2.3" phases=3 conn=Delta model=2 kv=13.800000000 kw = 1.0705085 pf=0.92 status=variable vmaxpu=1.5 vminpu=0.5 daily="MT-Tipo2_SA"  
New "Load.MT_8236807_M2" bus1="82368075002409.1.2.3" phases=3 conn=Delta model=3 kv=13.800000000 kw = 1.0705085 pf=0.92 status=variable vmaxpu=1.5 vminpu=0.5 daily="MT-Tipo2_SA" 
New "Load.MT_8305993_1_M1" bus1="83059935002409.1.2.3" phases=3 conn=Delta model=2 kv=13.800000000 kw = 56.500094 pf=0.92 status=variable vmaxpu=1.5 vminpu=0.5 daily="MT-Tipo5_SA"  
New "Load.MT_8305993_1_M2" bus1="83059935002409.1.2.3" phases=3 conn=Delta model=3 kv=13.800000000 kw = 56.500094 pf=0.92 status=variable vmaxpu=1.5 vminpu=0.5 daily="MT-Tipo5_SA" 
New "Load.MT_8236490_M1" bus1="82364905002409.1.2.3" phases=3 conn=Delta model=2 kv=13.800000000 kw = 8.870622 pf=0.92 status=variable vmaxpu=1.5 vminpu=0.5 daily="MT-Tipo1_SA"  
New "Load.MT_8236490_M2" bus1="82364905002409.1.2.3" phases=3 conn=Delta model=3 kv=13.800000000 kw = 8.870622 pf=0.92 status=variable vmaxpu=1.5 vminpu=0.5 daily="MT-Tipo1_SA" 

New "Load.MT_8305993_2_M1" bus1="83059935002409.1.2.3" phases=3 conn=Delta model=2 kv=13.800000000 kw = 458.5389795 pf=0.92 status=variable vmaxpu=1.5 vminpu=0.5 daily="MT-Tipo1_SA"  
New "Load.MT_8305993_2_M2" bus1="83059935002409.1.2.3" phases=3 conn=Delta model=3 kv=13.800000000 kw = 458.5389795 pf=0.92 status=variable vmaxpu=1.5 vminpu=0.5 daily="MT-Tipo1_SA" 
New "Load.MT_8986428_M1" bus1="89864285002409.1.2.3" phases=3 conn=Delta model=2 kv=13.800000000 kw = 7.2978555 pf=0.92 status=variable vmaxpu=1.5 vminpu=0.5 daily="MT-Tipo6_SA"  
New "Load.MT_8986428_M2" bus1="89864285002409.1.2.3" phases=3 conn=Delta model=3 kv=13.800000000 kw = 7.2978555 pf=0.92 status=variable vmaxpu=1.5 vminpu=0.5 daily="MT-Tipo6_SA" 
New "Load.MT_9552297_M1" bus1="95522975002409.1.2.3" phases=3 conn=Delta model=2 kv=13.800000000 kw = 1.546703 pf=0.92 status=variable vmaxpu=1.5 vminpu=0.5 daily="MT-Tipo6_SA"  
New "Load.MT_9552297_M2" bus1="95522975002409.1.2.3" phases=3 conn=Delta model=3 kv=13.800000000 kw = 1.546703 pf=0.92 status=variable vmaxpu=1.5 vminpu=0.5 daily="MT-Tipo6_SA" 
